module/powerflow/autotest/test_center_tapped_basic.glm
// Validation test for example 11.1 in Kersting, chapter 11
// <Tests the functionality of a center-tapped transformer, as well as
// the calculation of power and accumulation of energy in a triplex_meter>

// sets up a single three-phase node at 7200 V and connects it to a triplex meter
// at 240v12 via a 50 kVA center-tapped transformer. On the triplex side of the 
// system, there are loads between line 1 and neutral, line 2 and neutral, and line 1 - line 2
// this test validates the voltages across those loads; triplex meter includes validation
// tests for measured_current, measured_voltage, measured power, and measured_real_energy using FBS

// player files used: center_tapped_basic_energy.player
// created by: alek332

#set relax_naming_rules=1

clock {
     timezone CST+6CDT;
     starttime '2006-01-01 00:00:00 CST';
	 stoptime '2006-01-01 09:00:00 CST';
}

module powerflow {
     solver_method FBS;
}
module assert;
module tape;

object node {
     name three-phase;
     phases ABCN;
	 bustype SWING;
     nominal_voltage 7200;
}

object transformer_configuration {
     name default_transformer;
     connect_type SINGLE_PHASE_CENTER_TAPPED;
     install_type PADMOUNT;
     primary_voltage 7200 V;
     secondary_voltage 120 V;
     power_rating 50.0;
	 powerA_rating 50.0;
	 resistance 0.011;
	 reactance 0.018;
}

object transformer {
     name center_tap_transformer_A;
     phases AS;
     from three-phase;
     to trip_node;
     configuration default_transformer;
}
	

object triplex_meter {
	name trip_node;
	phases AS;
	nominal_voltage 120.00;
	object triplex_load {
		phases AS;
		nominal_voltage 120.00;
		constant_impedance_1 1.4+0.5j;
		constant_impedance_2  0.9+0.4j;
		constant_impedance_12 2.0+1.2j;
	};
	bill_mode UNIFORM;
	object complex_assert {
		target measured_current_N;
		value -40.94+147.0d; // result of last working run: +118.001-1.26275j
		within .32;
	 };
	 object complex_assert {
		target measured_current_1;
		value 179.6-26.6d; // result of last working run: +118.001-1.26275j
		within .1;
	 };
	 object complex_assert {
		target measured_current_2;
		value 220.4+152.2d; // result of last working run: +117.846-1.26343j
		within .1;
	 };
	 object complex_assert {
		target measured_voltage_N;
		value 0; // result of last working run: +118.001-1.26275j
		within .05;
	 };
	 object complex_assert {
		target measured_voltage_1;
		value 118-0.6131d; // result of last working run: +118.001-1.26275j
		within .05;
	 };
	 object complex_assert {
		target measured_voltage_2;
		value 117.9-0.61421d; // result of last working run: +117.846-1.26343j
		within .05;
	 };
	
// measured_power	indiv_measured_power_1	indiv_measured_power_2	indiv_measured_power_N
// +47168.7+26.6401d	+21199+25.9925d	+23106.6+11859.2j	+0+0d
// +47168.7+152.132d	+21199+152.781d	-22847+12351.8j	+0+0d

// measured_voltage_1	measured_voltage_2	measured_voltage_N	measured_current_1	measured_current_2	measured_current_N
// +118.008-0.613105d	+117.853-0.614242d	+0+0d	+160.618-80.4511j	-194.973+102.723j	+34.3547-22.2716j
// +118.008-0.613105d	+117.853-0.614242d	+0+0d	+160.618-80.4511j	-194.973+102.723j	+34.3547-22.2716j

	 object complex_assert {
		target voltage_1;
		value 118-0.6131d; // result of last working run: +118.001-1.26275j
		within .05;
	 };
	 object complex_assert {
		target voltage_2;
		value 117.9-0.61421d; // result of last working run: +117.846-1.26343j
		within .05;
	 };
	 object complex_assert {
		target voltage_12;
		value 235.9-0.6147d; // result of last working run: +235.848-2.52617j
		within .05;
	 };
		object complex_assert {
		target measured_power;
		value 47168.7+26.64d; // result of last working run: +21199+25.9925d
		within 1;
	 };
	 object double_assert {
		target "measured_real_energy";
		within 5;
		object player {
			property value;
			file ../center_tapped_basic_energy.player;
		};
	 };
	object complex_assert {
		target indiv_measured_power_1;
		value 21199+25.9925d; // result of last working run: +21199+25.9925d
		within .32;
	 };
	object complex_assert {
		target indiv_measured_power_2;
		value +23106.6+11859.2j; // result of last working run: +23106.6+11859.2j
		within .32;					// (multiplying complex conjugates gives negative??)
	 };
	  object recorder {
		interval 3600;
		limit 30;
		file "meter_power.csv"; // <- recorder with the results below
		property indiv_measured_power_1,indiv_measured_power_2,indiv_measured_power_N,measured_power,measured_real_energy,measured_voltage_1,measured_voltage_2,measured_voltage_12;
	 };
}
